<?xml version="1.0" encoding="UTF-8"?>

<!-- generated on 2026-04-26T00:42:14.413499+05:30 by Eclipse SUMO netconvert 1.26.0
<netconvertConfiguration xmlns:xsi="http://www.w3.org/2001/XMLSchema-instance" xsi:noNamespaceSchemaLocation="http://sumo.dlr.de/xsd/netconvertConfiguration.xsd">

    <input>
        <node-files value="D:\Vansec\scenario\corridor.nod.xml"/>
        <edge-files value="D:\Vansec\scenario\corridor.edg.xml"/>
    </input>

    <output>
        <output-file value="D:\Vansec\scenario\corridor.net.xml"/>
    </output>

</netconvertConfiguration>
-->

<net version="1.20" junctionCornerDetail="5" limitTurnSpeed="5.50" xmlns:xsi="http://www.w3.org/2001/XMLSchema-instance" xsi:noNamespaceSchemaLocation="http://sumo.dlr.de/xsd/net_file.xsd">

    <location netOffset="0.00,0.00" convBoundary="0.00,0.00,1200.00,0.00" origBoundary="0.00,0.00,1200.00,0.00" projParameter="!"/>

    <edge id=":n1_0" function="internal">
        <lane id=":n1_0_0" index="0" speed="12.50" length="0.10" shape="400.00,-1.60 400.00,-1.60"/>
    </edge>
    <edge id=":n2_0" function="internal">
        <lane id=":n2_0_0" index="0" speed="11.11" length="0.10" shape="800.00,-1.60 800.00,-1.60"/>
    </edge>

    <edge id="e0" from="n0" to="n1" priority="-1">
        <lane id="e0_0" index="0" speed="16.67" length="400.00" shape="0.00,-1.60 400.00,-1.60"/>
    </edge>
    <edge id="e1" from="n1" to="n2" priority="-1">
        <lane id="e1_0" index="0" speed="8.33" length="400.00" shape="400.00,-1.60 800.00,-1.60"/>
    </edge>
    <edge id="e2" from="n2" to="n3" priority="-1">
        <lane id="e2_0" index="0" speed="13.89" length="400.00" shape="800.00,-1.60 1200.00,-1.60"/>
    </edge>

    <junction id="n0" type="dead_end" x="0.00" y="0.00" incLanes="" intLanes="" shape="0.00,0.00 0.00,-3.20"/>
    <junction id="n1" type="priority" x="400.00" y="0.00" incLanes="e0_0" intLanes=":n1_0_0" shape="400.00,0.00 400.00,-3.20 400.00,0.00">
        <request index="0" response="0" foes="0" cont="0"/>
    </junction>
    <junction id="n2" type="priority" x="800.00" y="0.00" incLanes="e1_0" intLanes=":n2_0_0" shape="800.00,0.00 800.00,-3.20 800.00,0.00">
        <request index="0" response="0" foes="0" cont="0"/>
    </junction>
    <junction id="n3" type="dead_end" x="1200.00" y="0.00" incLanes="e2_0" intLanes="" shape="1200.00,-3.20 1200.00,0.00"/>

    <connection from="e0" to="e1" fromLane="0" toLane="0" via=":n1_0_0" dir="s" state="M"/>
    <connection from="e1" to="e2" fromLane="0" toLane="0" via=":n2_0_0" dir="s" state="M"/>

    <connection from=":n1_0" to="e1" fromLane="0" toLane="0" dir="s" state="M"/>
    <connection from=":n2_0" to="e2" fromLane="0" toLane="0" dir="s" state="M"/>

</net>
