<?xml version="1.0" encoding="UTF-8"?>
<configuration>
    <input>
        <net-file value="corridor.net.xml"/>
        <gui-settings-file value="gui-settings.xml"/>
    </input>
    <time>
        <begin value="0"/>
        <end value="300"/>
        <step-length value="1"/>
    </time>
    <processing>
        <collision.action value="warn"/>
    </processing>
</configuration>
