<?xml version="1.0" encoding="UTF-8"?>
<nodes>
    <node id="n0" x="0.0" y="0.0" type="priority"/>
    <node id="n1" x="400.0" y="0.0" type="priority"/>
    <node id="n2" x="800.0" y="0.0" type="priority"/>
    <node id="n3" x="1200.0" y="0.0" type="priority"/>
</nodes>
