<?xml version="1.0" encoding="UTF-8"?>
<edges>
    <edge id="e0" from="n0" to="n1" numLanes="1" speed="16.67"/>
    <edge id="e1" from="n1" to="n2" numLanes="1" speed="8.33"/>
    <edge id="e2" from="n2" to="n3" numLanes="1" speed="13.89"/>
</edges>
